<?xml version="1.0" encoding="UTF-8"?>

<!-- generated on 10/03/20 02:29:30 by Eclipse SUMO duarouter Version 1.7.0
<configuration xmlns:xsi="http://www.w3.org/2001/XMLSchema-instance" xsi:noNamespaceSchemaLocation="http://sumo.dlr.de/xsd/duarouterConfiguration.xsd">

    <input>
        <net-file value="Satdobato.net.xml"/>
        <route-files value="trips.trips.xml"/>
    </input>

    <output>
        <output-file value="Satdobato.rou.xml"/>
        <alternatives-output value="Satdobato.rou.alt.xml"/>
    </output>

    <time>
        <begin value="0"/>
        <end value="50"/>
    </time>

    <report>
        <no-warnings value="true"/>
        <ignore-errors value="true"/>
        <no-step-log value="true"/>
    </report>

</configuration>
-->

<routes xmlns:xsi="http://www.w3.org/2001/XMLSchema-instance" xsi:noNamespaceSchemaLocation="http://sumo.dlr.de/xsd/routes_file.xsd">
    <vType accel="1.0" decel="5.0" id="Car" length="7.0" maxSpeed="100.0" sigma="0.0"/>
	<vType accel="1.0" decel="5.0" id="Bus" length="12.0" maxSpeed="100.0" sigma="0.0"/>
	<vehicle id="0" depart="0.00" type="Car">
        <route edges="199430786#0 199430786#1 172371444#1 172371444#2 172371444#3 136524570#0 136524570#1 136524570#2 136524570#3 -136517125#2"/>
    </vehicle>
    <vehicle id="1" depart="1.00" type="Bus">
        <route edges="-373173846 -459779216#0 -136524570#3 -136524570#2 -136524570#1 -136524570#0 -172371444#3 -172371444#2 -172371444#1 -172371444#0 -231178985#3"/>
    </vehicle>
    <vehicle id="2" depart="2.00" type="Bus">
        <route edges="231786206 -172371444#3 -172371444#2 -172371444#1 -172371444#0 -231178985#3 -231178985#2 -231178985#1 244376584#0 244376585#0"/>
    </vehicle>
    <vehicle id="3" depart="3.00" type="Bus">
        <route edges="812968567#1 -172651331#0 670112950#4 -224842282#5 -224842282#4 -224842282#3 -224842282#2 -172651337 -172651331#1"/>
    </vehicle>
    <vehicle id="4" depart="4.00">
        <route edges="172349752#1 -751465458#0 -356466287#1 -356466287#0 751465453#1 751465452#0 751465452#1 751465452#2 -136524570#0 -172371444#3 -172371444#2 -172371444#1 -172371444#0 -231178985#3 -231178985#2 166815410#0 -166815410#0"/>
    </vehicle>
    <vehicle id="5" depart="5.00" type="Bus">
        <route edges="-225456437 -225456436 -216297386 -224842282#6 -224842282#5 -224842282#4 -224842282#3 172651241"/>
    </vehicle>
    <vehicle id="6" depart="6.00">
        <route edges="-136524570#3 -136524570#2 -136524570#1 -136524570#0 -172371444#3 670112950#2 670112950#3 670112950#4 -224842282#5 -224842282#4 -224842282#3 -224842282#2 -224842282#1 -224842282#0"/>
    </vehicle>
    <vehicle id="8" depart="8.00" type="Bus">
        <route edges="-225456437 -225456436 -216297386 -224842282#6 -224842282#5 -224842282#4 -224842282#3 -224842282#2 224842282#2"/>
    </vehicle>
    <vehicle id="9" depart="9.00">
        <route edges="670112950#0 -221631013#3 -221631013#2 -221631013#1 -97053266#1 -111858021"/>
    </vehicle>
    <vehicle id="10" depart="10.00">
        <route edges="670112950#0 670112950#1 172371444#3 136524570#0 751465452#3 -342998883#3 -342998883#2 -342998883#1 342998883#1"/>
    </vehicle>
    <vehicle id="11" depart="11.00">
        <route edges="-97053243#0 224842282#4 224842282#5 224842282#6 -216297391 -172371444#3 -172371444#2 -172371444#1 -199430786#1"/>
    </vehicle>
    <vehicle id="12" depart="12.00">
        <route edges="97053266#0 97053266#1 221631013#1 221631013#2 221631013#3 670112950#1 670112950#2 670112950#3 670112950#4 -224842282#5 -224842282#4 -224842282#3 172651241 -97053240#7 -97053240#6 -97053240#5 -97053240#4 -97053240#3"/>
    </vehicle>
    <vehicle id="13" depart="13.00" type="Bus">
        <route edges="-172651281 -97053246#1 -97053246#0 -97053240#0 224842282#1 -172651337"/>
    </vehicle>
    <vehicle id="14" depart="14.00">
        <route edges="751465452#0 -224842282#7 216297386 225456436 225456437"/>
    </vehicle>
    <vehicle id="15" depart="15.00">
        <route edges="670112950#0 670112950#1"/>
    </vehicle>
    <vehicle id="16" depart="16.00">
        <route edges="193085043#0 193085043#1 751465453#0 751465453#1 751465452#0 -224842282#7 -224842282#6 -224842282#5 -224842282#4 -224842282#3 -224842282#2 -224842282#1 97053240#0 97053246#0"/>
    </vehicle>
    <vehicle id="17" depart="17.00" type="Bus">
        <route edges="111858021 -111858021 172371444#0 -199430786#1 199430786#1"/>
    </vehicle>
    <vehicle id="18" depart="18.00">
        <route edges="670112950#3 670112950#4 224842282#6 216297386 225456436 225456437"/>
    </vehicle>
    <vehicle id="19" depart="19.00">
        <route edges="751465452#3 -342998883#3 -342998883#2 -342998883#1 111858041 342998882 -136524570#2 -136524570#1 -136524570#0 -172371444#3 -172371444#2 -172371444#1 221631013#0 221631013#1"/>
    </vehicle>
    <vehicle id="20" depart="20.00" type="Bus">
        <route edges="231178985#0 231178985#1 231178985#2 231178985#3 172371444#0 172371444#1 172371444#2 172371444#3 136524570#0 136524570#1 136524570#2 136524570#3 -136517125#2 172349747 -172349743#1 172349743#1 -172349747"/>
    </vehicle>
    <vehicle id="21" depart="21.00">
        <route edges="-225456437 -225456436 -216297386 224842282#7 136517125#0 136517125#1 172349747 -172349743#1 172349752#0 172349752#1 -751465458#0 -356466287#1"/>
    </vehicle>
    <vehicle id="22" depart="22.00">
        <route edges="-172651241 224842282#3 224842282#4 224842282#5 224842282#6 -216297391 -231786206"/>
    </vehicle>
    <vehicle id="23" depart="23.00">
        <route edges="-172651331#1 -172651331#0 670112950#4 224842282#6 224842282#7 751465452#1 751465452#2 751465452#3 -342998883#3 -342998883#2 -342998883#1 -342998883#0"/>
    </vehicle>
    <vehicle id="24" depart="24.00">
        <route edges="199430786#0 199430786#1 221631013#0 -97053266#1 -97053266#0"/>
    </vehicle>
    <vehicle id="25" depart="25.00" type="Bus">
        <route edges="-97378441#2 -97378441#1 172349743#0 172349743#1 -172349747 136517125#2 -136524570#3 -136524570#2 -136524570#1 -136524570#0 -172371444#3 -172371444#2 -172371444#1 -172371444#0 -231178985#3 -231178985#2 -231178985#1 -231178985#0"/>
    </vehicle>
    <vehicle id="26" depart="26.00" type="Bus">
        <route edges="-342998883#1 111858041 342998882 -136524570#2 -136524570#1 -136524570#0 -172371444#3 670112950#2 670112950#3 670112950#4 -224842282#5 -224842282#4 -224842282#3 -224842282#2 -224842282#1 97053240#0 97053240#1 97053240#2"/>
    </vehicle>
    <vehicle id="27" depart="27.00" type="Bus">
        <route edges="211106674 97053240#5 97053240#6 97053240#7 -172651241 224842282#3 224842282#4 224842282#5 224842282#6 216297386 225456436 225456437"/>
    </vehicle>
    <vehicle id="28" depart="28.00" type="Bus">
        <route edges="-225456437 -225456436 -216297386 -216297391 -172371444#3 -172371444#2 -172371444#1 221631013#0 221631013#1 221631013#2 221631013#3 670112950#1"/>
    </vehicle>
    <vehicle id="29" depart="29.00">
        <route edges="-225456437 -225456436 -216297386 -216297391 -172371444#3 -172371444#2 -172371444#1 -172371444#0 111858021 -97053266#0"/>
    </vehicle>
    <vehicle id="30" depart="30.00">
        <route edges="97053277#0 97053277#1 670112950#3 670112950#4 224842282#6 216297386 225456436 225456437"/>
    </vehicle>
    <vehicle id="31" depart="31.00">
        <route edges="193085043#0 193085043#1 751465453#0 751465453#1 751465452#0 751465452#1 751465452#2 136524570#1 136524570#2 -342998882 342998882"/>
    </vehicle>
    <vehicle id="32" depart="32.00">
        <route edges="751465452#0 751465452#1 751465452#2 751465452#3 751465452#4"/>
    </vehicle>
    <vehicle id="33" depart="33.00">
        <route edges="-225456437 -225456436 -216297386 -216297391 -172371444#3 -172371444#2 -172371444#1 -172371444#0 -231178985#3 -231178985#2 166815410#0 -166815410#0"/>
    </vehicle>
    <vehicle id="34" depart="34.00">
        <route edges="-97053240#2 -97053240#1 -97053240#0 224842282#1 224842282#2 224842282#3 224842282#4 224842282#5 224842282#6 224842282#7 751465452#1 751465452#2 136524570#1 136524570#2 -342998882"/>
    </vehicle>
    <vehicle id="35" depart="35.00" type="Bus">
        <route edges="-225456437 -225456436 -216297386 -224842282#6 -224842282#5 -224842282#4 -224842282#3 -224842282#2 -224842282#1 97053240#0 97053240#1 97053240#2"/>
    </vehicle>
    <vehicle id="37" depart="37.00">
        <route edges="216297386 225456436 225456437 -225456437 -225456436 -216297386 -216297391 -172371444#3 -172371444#2 -172371444#1 -172371444#0 111858021 -97053266#0"/>
    </vehicle>
    <vehicle id="38" depart="38.00">
        <route edges="97053240#3 97053240#4 97053240#5 97053240#6 97053240#7 -172651241 224842282#3 224842282#4 224842282#5 224842282#6 224842282#7 136517125#0 136517125#1 172349747 -172349743#1 172349752#0 172349752#1 751465458#1 751465459 172349740"/>
    </vehicle>
    <vehicle id="39" depart="39.00">
        <route edges="-342998883#1 111858041 342998882 -136524570#2 -136524570#1 -136524570#0 -231786206"/>
    </vehicle>
    <vehicle id="40" depart="40.00">
        <route edges="193085043#0 193085043#1 751465453#0 751465453#1 751465452#0 751465452#1 751465452#2 136524570#1 136524570#2 -342998882"/>
    </vehicle>
    <vehicle id="41" depart="41.00" type="Bus">
        <route edges="193085043#0 193085043#1 751465453#0 751465453#1 751465452#0 -224842282#7 -224842282#6 670112950#5 751465455#0 751465455#1 751465454#0 751465454#1"/>
    </vehicle>
    <vehicle id="42" depart="42.00">
        <route edges="136524570#3 -136524570#3 -136524570#2 -136524570#1 -136524570#0 -172371444#3 -172371444#2 -172371444#1 -172371444#0 -231178985#3 -231178985#2 -231178985#1"/>
    </vehicle>
    <vehicle id="43" depart="43.00">
        <route edges="97378441#2 -751465458#2 -751465458#1 -751465458#0 -356466287#1 -356466287#0 751465453#1 751465452#0 -224842282#7 -224842282#6 -224842282#5 -224842282#4 -224842282#3 172651241"/>
    </vehicle>
    <vehicle id="44" depart="44.00">
        <route edges="-172651281 -97053246#1 -97053246#0 -97053240#0 224842282#1 224842282#2 224842282#3 224842282#4 224842282#5 224842282#6 224842282#7 136517125#0 136517125#1 172349747 -172349743#1 172349752#0 -172349752#0"/>
    </vehicle>
    <vehicle id="45" depart="45.00" type="Bus">
        <route edges="-172651337 172651337 224842282#2 224842282#3 224842282#4 224842282#5 224842282#6 216297386 225456436 225456437"/>
    </vehicle>
    <vehicle id="46" depart="46.00" type="Bus">
        <route edges="670112950#0 670112950#1 172371444#3 136524570#0 136524570#1 136524570#2 136524570#3 -136517125#2 172349747 -172349743#1 -172349743#0 97378441#1 97378441#2 -97378441#2"/>
    </vehicle>
    <vehicle id="48" depart="48.00">
        <route edges="97378441#1 97378441#2 -751465458#2 -751465458#1 -751465458#0 -356466287#1 -356466287#0 751465453#1 751465452#0 -224842282#7 -224842282#6 -224842282#5 812968567#1 172651331#1"/>
    </vehicle>
    <vehicle id="49" depart="49.00" type="Bus">
        <route edges="97053266#0 97053266#1 221631013#1 221631013#2 221631013#3 670112950#1 670112950#2 670112950#3 670112950#4 670112950#5 751465455#0 751465455#1 751465454#0"/>
    </vehicle>
</routes>
