<?xml version="1.0" encoding="UTF-8"?>

<!-- generated on 10/04/20 16:25:32 by Eclipse SUMO netedit Version 1.7.0
<configuration xmlns:xsi="http://www.w3.org/2001/XMLSchema-instance" xsi:noNamespaceSchemaLocation="http://sumo.dlr.de/xsd/netconvertConfiguration.xsd">

    <input>
        <sumo-net-file value="C:\Users\user\Desktop\SUMO\Satdobato\OD_Trip_Simulation\Satdobato.net.xml"/>
    </input>

    <output>
        <output-file value="C:\Users\user\Desktop\SUMO\Satdobato\OD_Trip_Simulation\Satdobato.net.xml"/>
    </output>

    <processing>
        <geometry.min-radius.fix.railways value="false"/>
        <geometry.max-grade.fix value="false"/>
        <offset.disable-normalization value="true"/>
        <lefthand value="false"/>
    </processing>

    <junctions>
        <no-turnarounds value="true"/>
        <junctions.corner-detail value="5"/>
        <junctions.limit-turn-speed value="5.5"/>
        <rectangular-lane-cut value="false"/>
    </junctions>

    <pedestrian>
        <walkingareas value="false"/>
    </pedestrian>

    <report>
        <aggregate-warnings value="5"/>
    </report>

</configuration>
-->

<net version="1.6" junctionCornerDetail="5" limitTurnSpeed="5.50" xmlns:xsi="http://www.w3.org/2001/XMLSchema-instance" xsi:noNamespaceSchemaLocation="http://sumo.dlr.de/xsd/net_file.xsd">

    <location netOffset="-332554.25,-3058899.73" convBoundary="0.00,0.00,3864.51,4120.18" origBoundary="85.302174,27.644121,85.341396,27.681015" projParameter="+proj=utm +zone=45 +ellps=WGS84 +datum=WGS84 +units=m +no_defs"/>

    <type id="highway.bridleway" priority="1" numLanes="1" speed="2.78" allow="pedestrian" oneway="1" width="2.00"/>
    <type id="highway.bus_guideway" priority="1" numLanes="1" speed="27.78" allow="bus" oneway="1"/>
    <type id="highway.cycleway" priority="1" numLanes="1" speed="8.33" allow="bicycle" oneway="0" width="1.00"/>
    <type id="highway.footway" priority="1" numLanes="1" speed="2.78" allow="pedestrian" oneway="1" width="2.00"/>
    <type id="highway.ford" priority="1" numLanes="1" speed="2.78" allow="army" oneway="0"/>
    <type id="highway.living_street" priority="2" numLanes="1" speed="2.78" disallow="tram rail_urban rail rail_electric rail_fast ship" oneway="0"/>
    <type id="highway.motorway" priority="14" numLanes="2" speed="39.44" allow="private emergency authority army vip passenger hov taxi bus coach delivery truck trailer motorcycle evehicle custom1 custom2" oneway="1"/>
    <type id="highway.motorway_link" priority="9" numLanes="1" speed="22.22" allow="private emergency authority army vip passenger hov taxi bus coach delivery truck trailer motorcycle evehicle custom1 custom2" oneway="1"/>
    <type id="highway.path" priority="1" numLanes="1" speed="2.78" allow="pedestrian bicycle" oneway="1" width="2.00"/>
    <type id="highway.pedestrian" priority="1" numLanes="1" speed="2.78" allow="pedestrian" oneway="1" width="2.00"/>
    <type id="highway.primary" priority="12" numLanes="2" speed="27.78" disallow="tram rail_urban rail rail_electric rail_fast ship" oneway="0"/>
    <type id="highway.primary_link" priority="7" numLanes="1" speed="22.22" disallow="tram rail_urban rail rail_electric rail_fast ship" oneway="0"/>
    <type id="highway.raceway" priority="15" numLanes="2" speed="83.33" allow="vip" oneway="0"/>
    <type id="highway.residential" priority="3" numLanes="1" speed="13.89" disallow="tram rail_urban rail rail_electric rail_fast ship" oneway="0"/>
    <type id="highway.secondary" priority="11" numLanes="1" speed="27.78" disallow="tram rail_urban rail rail_electric rail_fast ship" oneway="0"/>
    <type id="highway.secondary_link" priority="6" numLanes="1" speed="22.22" disallow="tram rail_urban rail rail_electric rail_fast ship" oneway="0"/>
    <type id="highway.service" priority="1" numLanes="1" speed="5.56" allow="pedestrian delivery bicycle" oneway="0"/>
    <type id="highway.stairs" priority="1" numLanes="1" speed="1.39" allow="pedestrian" oneway="1" width="2.00"/>
    <type id="highway.step" priority="1" numLanes="1" speed="1.39" allow="pedestrian" oneway="1" width="2.00"/>
    <type id="highway.steps" priority="1" numLanes="1" speed="1.39" allow="pedestrian" oneway="1" width="2.00"/>
    <type id="highway.tertiary" priority="10" numLanes="1" speed="22.22" disallow="tram rail_urban rail rail_electric rail_fast ship" oneway="0"/>
    <type id="highway.tertiary_link" priority="5" numLanes="1" speed="22.22" disallow="tram rail_urban rail rail_electric rail_fast ship" oneway="0"/>
    <type id="highway.track" priority="1" numLanes="1" speed="5.56" allow="pedestrian motorcycle moped bicycle" oneway="0"/>
    <type id="highway.trunk" priority="13" numLanes="2" speed="27.78" disallow="pedestrian bicycle tram rail_urban rail rail_electric rail_fast ship" oneway="0"/>
    <type id="highway.trunk_link" priority="8" numLanes="1" speed="22.22" disallow="pedestrian bicycle tram rail_urban rail rail_electric rail_fast ship" oneway="0"/>
    <type id="highway.unclassified" priority="4" numLanes="1" speed="13.89" disallow="tram rail_urban rail rail_electric rail_fast ship" oneway="0"/>
    <type id="highway.unsurfaced" priority="1" numLanes="1" speed="8.33" disallow="tram rail_urban rail rail_electric rail_fast ship" oneway="0"/>
    <type id="railway.highspeed" priority="21" numLanes="1" speed="69.44" allow="rail_fast" oneway="1"/>
    <type id="railway.light_rail" priority="19" numLanes="1" speed="27.78" allow="rail_urban" oneway="1"/>
    <type id="railway.preserved" priority="16" numLanes="1" speed="27.78" allow="rail" oneway="1"/>
    <type id="railway.rail" priority="20" numLanes="1" speed="44.44" allow="rail" oneway="1"/>
    <type id="railway.subway" priority="18" numLanes="1" speed="27.78" allow="rail_urban" oneway="1"/>
    <type id="railway.tram" priority="17" numLanes="1" speed="13.89" allow="tram" oneway="1"/>

    <edge id=":1000811899_0" function="internal">
        <lane id=":1000811899_0_0" index="0" disallow="tram rail_urban rail rail_electric rail_fast ship" speed="3.65" length="4.67" shape="2578.77,2359.05 2578.85,2360.49 2578.45,2361.29 2577.57,2361.45 2576.21,2360.97"/>
    </edge>
    <edge id=":1000811909_0" function="internal">
        <lane id=":1000811909_0_0" index="0" disallow="tram rail_urban rail rail_electric rail_fast ship" speed="18.06" length="17.74" shape="2463.91,2114.72 2462.14,2110.96 2459.72,2106.95 2457.08,2103.05 2454.66,2099.63"/>
    </edge>
    <edge id=":1000811909_1" function="internal">
        <lane id=":1000811909_1_0" index="0" disallow="tram rail_urban rail rail_electric rail_fast ship" speed="22.22" length="18.66" shape="2463.91,2114.72 2462.96,2110.55 2462.55,2105.57 2462.50,2100.53 2462.61,2096.18"/>
    </edge>
    <edge id=":1000811909_2" function="internal">
        <lane id=":1000811909_2_0" index="0" disallow="tram rail_urban rail rail_electric rail_fast ship" speed="3.65" length="2.54" shape="2463.91,2114.72 2464.25,2113.32 2464.86,2112.66 2465.06,2112.69"/>
    </edge>
    <edge id=":1000811909_9" function="internal">
        <lane id=":1000811909_9_0" index="0" disallow="tram rail_urban rail rail_electric rail_fast ship" speed="3.65" length="2.14" shape="2465.06,2112.69 2465.75,2112.76 2466.91,2113.61"/>
    </edge>
    <edge id=":1000811909_3" function="internal">
        <lane id=":1000811909_3_0" index="0" disallow="tram rail_urban rail rail_electric rail_fast ship" speed="22.22" length="17.45" shape="2465.80,2096.28 2465.67,2100.43 2465.65,2105.06 2465.99,2109.63 2466.91,2113.61"/>
    </edge>
    <edge id=":1000811909_4" function="internal">
        <lane id=":1000811909_4_0" index="0" disallow="tram rail_urban rail rail_electric rail_fast ship" speed="7.59" length="8.46" shape="2465.80,2096.28 2464.91,2103.39 2464.14,2104.43"/>
    </edge>
    <edge id=":1000811909_5" function="internal">
        <lane id=":1000811909_5_0" index="0" disallow="tram rail_urban rail rail_electric rail_fast ship" speed="3.65" length="2.34" shape="2465.80,2096.28 2464.97,2097.45 2464.16,2097.83"/>
    </edge>
    <edge id=":1000811909_10" function="internal">
        <lane id=":1000811909_10_0" index="0" disallow="tram rail_urban rail rail_electric rail_fast ship" speed="7.59" length="13.15" shape="2464.14,2104.43 2462.75,2106.32 2459.34,2105.06 2454.66,2099.63"/>
    </edge>
    <edge id=":1000811909_11" function="internal">
        <lane id=":1000811909_11_0" index="0" disallow="tram rail_urban rail rail_electric rail_fast ship" speed="3.65" length="2.34" shape="2464.16,2097.83 2463.37,2097.41 2462.61,2096.18"/>
    </edge>
    <edge id=":1000811909_6" function="internal">
        <lane id=":1000811909_6_0" index="0" disallow="tram rail_urban rail rail_electric rail_fast ship" speed="5.46" length="10.33" shape="2457.28,2097.79 2459.51,2100.39 2461.15,2100.98 2462.18,2099.58 2462.61,2096.18"/>
    </edge>
    <edge id=":1000811909_7" function="internal">
        <lane id=":1000811909_7_0" index="0" disallow="tram rail_urban rail rail_electric rail_fast ship" speed="18.06" length="18.56" shape="2457.28,2097.79 2459.75,2101.32 2462.53,2105.47 2465.08,2109.73 2466.91,2113.61"/>
    </edge>
    <edge id=":1000811909_8" function="internal">
        <lane id=":1000811909_8_0" index="0" disallow="tram rail_urban rail rail_electric rail_fast ship" speed="3.65" length="4.67" shape="2457.28,2097.79 2457.32,2099.23 2456.89,2100.02 2456.01,2100.15 2454.66,2099.63"/>
    </edge>
    <edge id=":1000811922_0" function="internal">
        <lane id=":1000811922_0_0" index="0" disallow="tram rail_urban rail rail_electric rail_fast ship" speed="22.22" length="20.74" shape="2446.88,1879.19 2445.70,1874.69 2444.13,1869.19 2442.43,1863.72 2440.83,1859.37"/>
    </edge>
    <edge id=":1000811922_1" function="internal">
        <lane id=":1000811922_1_0" index="0" allow="pedestrian delivery bicycle" speed="5.95" length="4.10" shape="2446.88,1879.19 2447.21,1875.51 2447.49,1875.21"/>
    </edge>
    <edge id=":1000811922_2" function="internal">
        <lane id=":1000811922_2_0" index="0" disallow="tram rail_urban rail rail_electric rail_fast ship" speed="3.66" length="2.50" shape="2446.88,1879.19 2447.23,1877.78 2447.85,1877.14 2448.00,1877.15"/>
    </edge>
    <edge id=":1000811922_9" function="internal">
        <lane id=":1000811922_9_0" index="0" allow="pedestrian delivery bicycle" speed="5.95" length="9.82" shape="2447.49,1875.21 2449.53,1873.06 2452.75,1872.47 2455.78,1874.36"/>
    </edge>
    <edge id=":1000811922_10" function="internal">
        <lane id=":1000811922_10_0" index="0" disallow="tram rail_urban rail rail_electric rail_fast ship" speed="3.66" length="2.20" shape="2448.00,1877.15 2448.74,1877.24 2449.91,1878.11"/>
    </edge>
    <edge id=":1000811922_3" function="internal">
        <lane id=":1000811922_3_0" index="0" allow="pedestrian delivery bicycle" speed="5.17" length="10.04" shape="2453.25,1876.31 2450.93,1873.69 2449.60,1873.11 2449.26,1874.59 2449.91,1878.11"/>
    </edge>
    <edge id=":1000811922_4" function="internal">
        <lane id=":1000811922_4_0" index="0" allow="pedestrian delivery bicycle" speed="13.89" length="21.05" shape="2453.25,1876.31 2450.30,1872.64 2446.63,1868.08 2443.17,1863.40 2440.83,1859.37"/>
    </edge>
    <edge id=":1000811922_5" function="internal">
        <lane id=":1000811922_5_0" index="0" allow="pedestrian delivery bicycle" speed="3.65" length="4.67" shape="2453.25,1876.31 2453.15,1874.87 2453.54,1874.07 2454.42,1873.90 2455.78,1874.36"/>
    </edge>
    <edge id=":1000811922_6" function="internal">
        <lane id=":1000811922_6_0" index="0" allow="pedestrian delivery bicycle" speed="13.89" length="20.25" shape="2443.77,1858.11 2446.05,1862.03 2449.37,1866.47 2452.89,1870.79 2455.78,1874.36"/>
    </edge>
    <edge id=":1000811922_7" function="internal">
        <lane id=":1000811922_7_0" index="0" disallow="tram rail_urban rail rail_electric rail_fast ship" speed="22.22" length="20.93" shape="2443.77,1858.11 2445.39,1862.49 2447.12,1868.01 2448.71,1873.58 2449.91,1878.11"/>
    </edge>
    <edge id=":1000811922_8" function="internal">
        <lane id=":1000811922_8_0" index="0" disallow="tram rail_urban rail rail_electric rail_fast ship" speed="3.65" length="2.34" shape="2443.77,1858.11 2443.51,1859.53 2442.93,1860.21"/>
    </edge>
    <edge id=":1000811922_11" function="internal">
        <lane id=":1000811922_11_0" index="0" disallow="tram rail_urban rail rail_electric rail_fast ship" speed="3.65" length="2.34" shape="2442.93,1860.21 2442.04,1860.16 2440.83,1859.37"/>
    </edge>
    <edge id=":1124430296_0" function="internal">
        <lane id=":1124430296_0_0" index="0" disallow="tram rail_urban rail rail_electric rail_fast ship" speed="10.12" length="9.25" shape="1907.46,1279.03 1904.88,1278.98 1903.20,1279.72 1901.66,1281.08 1899.53,1282.86"/>
    </edge>
    <edge id=":1124430296_1" function="internal">
        <lane id=":1124430296_1_0" index="0" disallow="tram rail_urban rail rail_electric rail_fast ship" speed="13.43" length="11.48" shape="1907.46,1279.03 1904.43,1278.20 1902.33,1276.88 1900.49,1275.05 1898.24,1272.69"/>
    </edge>
    <edge id=":1124430296_2" function="internal">
        <lane id=":1124430296_2_0" index="0" disallow="tram rail_urban rail rail_electric rail_fast ship" speed="3.65" length="2.51" shape="1907.46,1279.03 1906.39,1278.05 1906.12,1277.20 1906.22,1277.06"/>
    </edge>
    <edge id=":1124430296_9" function="internal">
        <lane id=":1124430296_9_0" index="0" disallow="tram rail_urban rail rail_electric rail_fast ship" speed="3.65" length="2.17" shape="1906.22,1277.06 1906.64,1276.47 1907.95,1275.87"/>
    </edge>
    <edge id=":1124430296_3" function="internal">
        <lane id=":1124430296_3_0" index="0" disallow="tram rail_urban rail rail_electric rail_fast ship" speed="12.28" length="9.56" shape="1900.48,1270.40 1902.40,1272.52 1903.74,1274.08 1905.32,1275.17 1907.95,1275.87"/>
    </edge>
    <edge id=":1124430296_4" function="internal">
        <lane id=":1124430296_4_0" index="0" disallow="tram rail_urban rail rail_electric rail_fast ship" speed="7.73" length="6.18" shape="1900.48,1270.40 1903.01,1273.73 1903.43,1275.68"/>
    </edge>
    <edge id=":1124430296_5" function="internal">
        <lane id=":1124430296_5_0" index="0" disallow="tram rail_urban rail rail_electric rail_fast ship" speed="3.65" length="2.34" shape="1900.48,1270.40 1900.78,1271.82 1900.50,1272.67"/>
    </edge>
    <edge id=":1124430296_10" function="internal">
        <lane id=":1124430296_10_0" index="0" disallow="tram rail_urban rail rail_electric rail_fast ship" speed="7.73" length="8.70" shape="1903.43,1275.68 1903.70,1276.92 1902.54,1279.96 1899.53,1282.86"/>
    </edge>
    <edge id=":1124430296_11" function="internal">
        <lane id=":1124430296_11_0" index="0" disallow="tram rail_urban rail rail_electric rail_fast ship" speed="3.65" length="2.34" shape="1900.50,1272.67 1899.66,1272.96 1898.24,1272.69"/>
    </edge>
    <edge id=":1124430296_6" function="internal">
        <lane id=":1124430296_6_0" index="0" disallow="tram rail_urban rail rail_electric rail_fast ship" speed="6.17" length="9.05" shape="1897.66,1280.27 1899.49,1278.50 1900.20,1276.65 1899.78,1274.71 1898.24,1272.69"/>
    </edge>
    <edge id=":1124430296_7" function="internal">
        <lane id=":1124430296_7_0" index="0" disallow="tram rail_urban rail rail_electric rail_fast ship" speed="11.31" length="11.64" shape="1897.66,1280.27 1900.28,1278.24 1902.48,1276.68 1904.83,1275.82 1907.95,1275.87"/>
    </edge>
    <edge id=":1124430296_8" function="internal">
        <lane id=":1124430296_8_0" index="0" disallow="tram rail_urban rail rail_electric rail_fast ship" speed="3.65" length="4.67" shape="1897.66,1280.27 1899.10,1280.21 1899.89,1280.63 1900.03,1281.51 1899.53,1282.86"/>
    </edge>
    <edge id=":1124430337_0" function="internal">
        <lane id=":1124430337_0_0" index="0" disallow="tram rail_urban rail rail_electric rail_fast ship" speed="5.68" length="9.23" shape="1731.72,1256.77 1729.23,1255.57 1727.39,1255.67 1726.19,1257.07 1725.63,1259.78"/>
    </edge>
    <edge id=":1124430337_1" function="internal">
        <lane id=":1124430337_1_0" index="0" disallow="tram rail_urban rail rail_electric rail_fast ship" speed="13.89" length="15.06" shape="1731.72,1256.77 1728.60,1254.61 1725.67,1252.18 1723.16,1249.39 1721.34,1246.17"/>
    </edge>
    <edge id=":1124430337_2" function="internal">
        <lane id=":1124430337_2_0" index="0" disallow="tram rail_urban rail rail_electric rail_fast ship" speed="3.65" length="2.34" shape="1731.72,1256.77 1731.16,1255.44 1731.27,1254.56"/>
    </edge>
    <edge id=":1124430337_9" function="internal">
        <lane id=":1124430337_9_0" index="0" disallow="tram rail_urban rail rail_electric rail_fast ship" speed="3.65" length="2.34" shape="1731.27,1254.56 1732.05,1254.11 1733.49,1254.10"/>
    </edge>
    <edge id=":1124430337_3" function="internal">
        <lane id=":1124430337_3_0" index="0" disallow="tram rail_urban rail rail_electric rail_fast ship" speed="13.89" length="13.18" shape="1724.31,1244.97 1725.95,1247.97 1728.03,1250.25 1730.56,1252.17 1733.49,1254.10"/>
    </edge>
    <edge id=":1124430337_4" function="internal">
        <lane id=":1124430337_4_0" index="0" disallow="tram rail_urban rail rail_electric rail_fast ship" speed="13.89" length="14.99" shape="1724.31,1244.97 1725.35,1248.54 1725.80,1252.25 1725.83,1256.02 1725.63,1259.78"/>
    </edge>
    <edge id=":1124430337_5" function="internal">
        <lane id=":1124430337_5_0" index="0" disallow="tram rail_urban rail rail_electric rail_fast ship" speed="3.65" length="2.10" shape="1724.31,1244.97 1724.02,1246.39 1723.58,1246.88"/>
    </edge>
    <edge id=":1124430337_10" function="internal">
        <lane id=":1124430337_10_0" index="0" disallow="tram rail_urban rail rail_electric rail_fast ship" speed="3.65" length="2.57" shape="1723.58,1246.88 1723.42,1247.05 1722.53,1246.98 1721.34,1246.17"/>
    </edge>
    <edge id=":1124430337_6" function="internal">
        <lane id=":1124430337_6_0" index="0" disallow="tram rail_urban rail rail_electric rail_fast ship" speed="13.89" length="13.57" shape="1722.44,1259.56 1722.68,1256.02 1722.72,1252.73 1722.35,1249.52 1721.34,1246.17"/>
    </edge>
    <edge id=":1124430337_7" function="internal">
        <lane id=":1124430337_7_0" index="0" disallow="tram rail_urban rail rail_electric rail_fast ship" speed="7.41" length="16.74" shape="1722.44,1259.56 1723.45,1254.65 1725.62,1252.10 1728.97,1251.92 1733.49,1254.10"/>
    </edge>
    <edge id=":1124430337_8" function="internal">
        <lane id=":1124430337_8_0" index="0" disallow="tram rail_urban rail rail_electric rail_fast ship" speed="3.65" length="4.67" shape="1722.44,1259.56 1723.32,1258.42 1724.15,1258.08 1724.92,1258.53 1725.63,1259.78"/>
    </edge>
    <edge id=":1124430346_0" function="internal">
        <lane id=":1124430346_0_0" index="0" disallow="tram rail_urban rail rail_electric rail_fast ship" speed="10.43" length="12.84" shape="1712.57,1392.27 1708.94,1394.18 1706.21,1396.23 1704.37,1398.40 1703.43,1400.69"/>
    </edge>
    <edge id=":1124430346_1" function="internal">
        <lane id=":1124430346_1_0" index="0" disallow="tram rail_urban rail rail_electric rail_fast ship" speed="7.39" length="17.06" shape="1712.57,1392.27 1707.63,1393.78 1704.34,1393.06 1702.70,1390.12 1702.71,1384.96"/>
    </edge>
    <edge id=":1124430346_2" function="internal">
        <lane id=":1124430346_2_0" index="0" disallow="tram rail_urban rail rail_electric rail_fast ship" speed="3.65" length="4.67" shape="1712.57,1392.27 1711.15,1392.03 1710.45,1391.47 1710.48,1390.58 1711.24,1389.35"/>
    </edge>
    <edge id=":1124430346_3" function="internal">
        <lane id=":1124430346_3_0" index="0" disallow="tram rail_urban rail rail_electric rail_fast ship" speed="5.63" length="9.28" shape="1705.88,1385.38 1705.88,1388.19 1706.77,1389.79 1708.56,1390.17 1711.24,1389.35"/>
    </edge>
    <edge id=":1124430346_4" function="internal">
        <lane id=":1124430346_4_0" index="0" disallow="tram rail_urban rail rail_electric rail_fast ship" speed="13.89" length="15.51" shape="1705.88,1385.38 1703.43,1400.69"/>
    </edge>
    <edge id=":1124430346_5" function="internal">
        <lane id=":1124430346_5_0" index="0" disallow="tram rail_urban rail rail_electric rail_fast ship" speed="3.65" length="2.34" shape="1705.88,1385.38 1704.93,1386.46 1704.08,1386.75"/>
    </edge>
    <edge id=":1124430346_9" function="internal">
        <lane id=":1124430346_9_0" index="0" disallow="tram rail_urban rail rail_electric rail_fast ship" speed="3.65" length="2.34" shape="1704.08,1386.75 1703.34,1386.25 1702.71,1384.96"/>
    </edge>
    <edge id=":1124430346_6" function="internal">
        <lane id=":1124430346_6_0" index="0" disallow="tram rail_urban rail rail_electric rail_fast ship" speed="13.89" length="15.27" shape="1700.30,1400.04 1702.71,1384.96"/>
    </edge>
    <edge id=":1124430346_7" function="internal">
        <lane id=":1124430346_7_0" index="0" disallow="tram rail_urban rail rail_electric rail_fast ship" speed="11.54" length="5.11" shape="1700.30,1400.04 1701.47,1397.01 1702.63,1395.55"/>
    </edge>
    <edge id=":1124430346_8" function="internal">
        <lane id=":1124430346_8_0" index="0" disallow="tram rail_urban rail rail_electric rail_fast ship" speed="3.65" length="2.34" shape="1700.30,1400.04 1701.32,1399.02 1702.19,1398.80"/>
    </edge>
    <edge id=":1124430346_10" function="internal">
        <lane id=":1124430346_10_0" index="0" disallow="tram rail_urban rail rail_electric rail_fast ship" speed="11.54" length="10.72" shape="1702.63,1395.55 1703.69,1394.22 1706.95,1391.67 1711.24,1389.35"/>
    </edge>
    <edge id=":1124430346_11" function="internal">
        <lane id=":1124430346_11_0" index="0" disallow="tram rail_urban rail rail_electric rail_fast ship" speed="3.65" length="2.34" shape="1702.19,1398.80 1702.89,1399.35 1703.43,1400.69"/>
    </edge>
    <edge id=":1124430380_0" function="internal">
        <lane id=":1124430380_0_0" index="0" disallow="tram rail_urban rail rail_electric rail_fast ship" speed="3.65" length="4.67" shape="1634.01,1310.20 1634.35,1308.80 1634.96,1308.15 1635.85,1308.25 1637.01,1309.10"/>
    </edge>
    <edge id=":1124430471_0" function="internal">
        <lane id=":1124430471_0_0" index="0" disallow="tram rail_urban rail rail_electric rail_fast ship" speed="13.89" length="16.53" shape="1815.49,1661.09 1813.37,1657.73 1811.49,1653.89 1809.89,1649.92 1808.66,1646.12"/>
    </edge>
    <edge id=":1124430471_1" function="internal">
        <lane id=":1124430471_1_0" index="0" disallow="tram rail_urban rail rail_electric rail_fast ship" speed="8.90" length="6.36" shape="1815.49,1661.09 1813.86,1657.74 1813.81,1655.11"/>
    </edge>
    <edge id=":1124430471_2" function="internal">
        <lane id=":1124430471_2_0" index="0" disallow="tram rail_urban rail rail_electric rail_fast ship" speed="3.65" length="2.45" shape="1815.49,1661.09 1815.43,1659.65 1815.84,1658.85 1815.95,1658.84"/>
    </edge>
    <edge id=":1124430471_9" function="internal">
        <lane id=":1124430471_9_0" index="0" disallow="tram rail_urban rail rail_electric rail_fast ship" speed="8.90" length="9.52" shape="1813.81,1655.11 1813.80,1654.27 1815.29,1650.69 1818.36,1646.99"/>
    </edge>
    <edge id=":1124430471_10" function="internal">
        <lane id=":1124430471_10_0" index="0" disallow="tram rail_urban rail rail_electric rail_fast ship" speed="3.65" length="2.23" shape="1815.95,1658.84 1816.72,1658.70 1818.07,1659.20"/>
    </edge>
    <edge id=":1124430471_3" function="internal">
        <lane id=":1124430471_3_0" index="0" disallow="tram rail_urban rail rail_electric rail_fast ship" speed="7.58" length="11.26" shape="1820.59,1649.27 1818.30,1651.99 1817.11,1654.55 1817.04,1656.95 1818.07,1659.20"/>
    </edge>
    <edge id=":1124430471_4" function="internal">
        <lane id=":1124430471_4_0" index="0" disallow="tram rail_urban rail rail_electric rail_fast ship" speed="7.42" length="16.61" shape="1820.59,1649.27 1816.62,1652.24 1813.30,1652.70 1810.65,1650.66 1808.66,1646.12"/>
    </edge>
    <edge id=":1124430471_5" function="internal">
        <lane id=":1124430471_5_0" index="0" disallow="tram rail_urban rail rail_electric rail_fast ship" speed="3.65" length="4.67" shape="1820.59,1649.27 1819.18,1649.54 1818.33,1649.25 1818.06,1648.40 1818.36,1646.99"/>
    </edge>
    <edge id=":1124430471_6" function="internal">
        <lane id=":1124430471_6_0" index="0" disallow="tram rail_urban rail rail_electric rail_fast ship" speed="5.70" length="9.21" shape="1811.74,1645.24 1812.84,1647.75 1814.31,1648.89 1816.15,1648.63 1818.36,1646.99"/>
    </edge>
    <edge id=":1124430471_7" function="internal">
        <lane id=":1124430471_7_0" index="0" disallow="tram rail_urban rail rail_electric rail_fast ship" speed="13.89" length="15.41" shape="1811.74,1645.24 1812.89,1648.88 1814.31,1652.51 1816.03,1655.99 1818.07,1659.20"/>
    </edge>
    <edge id=":1124430471_8" function="internal">
        <lane id=":1124430471_8_0" index="0" disallow="tram rail_urban rail rail_electric rail_fast ship" speed="3.65" length="2.34" shape="1811.74,1645.24 1811.30,1646.61 1810.64,1647.22"/>
    </edge>
    <edge id=":1124430471_11" function="internal">
        <lane id=":1124430471_11_0" index="0" disallow="tram rail_urban rail rail_electric rail_fast ship" speed="3.65" length="2.34" shape="1810.64,1647.22 1809.76,1647.05 1808.66,1646.12"/>
    </edge>
    <edge id=":1124430589_0" function="internal">
        <lane id=":1124430589_0_0" index="0" disallow="tram rail_urban rail rail_electric rail_fast ship" speed="3.65" length="4.67" shape="2647.03,1042.15 2646.68,1040.75 2646.93,1039.89 2647.76,1039.57 2649.19,1039.79"/>
    </edge>
    <edge id=":1124430642_0" function="internal">
        <lane id=":1124430642_0_0" index="0" disallow="tram rail_urban rail rail_electric rail_fast ship" speed="5.52" length="9.51" shape="2304.65,1298.99 2304.16,1296.06 2303.02,1294.69 2301.25,1294.87 2298.84,1296.61"/>
    </edge>
    <edge id=":1124430642_1" function="internal">
        <lane id=":1124430642_1_0" index="0" disallow="tram rail_urban rail rail_electric rail_fast ship" speed="27.78" length="16.34" shape="2304.65,1298.99 2304.00,1282.66"/>
    </edge>
    <edge id=":1124430642_2" function="internal">
        <lane id=":1124430642_2_0" index="0" disallow="tram rail_urban rail rail_electric rail_fast ship" speed="3.65" length="2.34" shape="2304.65,1298.99 2305.39,1297.76 2306.17,1297.32"/>
    </edge>
    <edge id=":1124430642_9" function="internal">
        <lane id=":1124430642_9_0" index="0" disallow="tram rail_urban rail rail_electric rail_fast ship" speed="3.65" length="2.34" shape="2306.17,1297.32 2306.99,1297.68 2307.85,1298.84"/>
    </edge>
    <edge id=":1124430642_3" function="internal">
        <lane id=":1124430642_3_0" index="0" disallow="tram rail_urban rail rail_electric rail_fast ship" speed="27.78" length="16.28" shape="2307.20,1282.58 2307.85,1298.84"/>
    </edge>
    <edge id=":1124430642_4" function="internal">
        <lane id=":1124430642_4_0" index="0" disallow="tram rail_urban rail rail_electric rail_fast ship" speed="12.67" length="5.47" shape="2307.20,1282.58 2306.73,1285.77 2305.80,1287.82"/>
    </edge>
    <edge id=":1124430642_5" function="internal">
        <lane id=":1124430642_5_0" index="0" disallow="tram rail_urban rail rail_electric rail_fast ship" speed="3.65" length="2.34" shape="2307.20,1282.58 2306.43,1283.80 2305.64,1284.22"/>
    </edge>
    <edge id=":1124430642_10" function="internal">
        <lane id=":1124430642_10_0" index="0" disallow="tram rail_urban rail rail_electric rail_fast ship" speed="12.67" length="11.29" shape="2305.80,1287.82 2305.19,1289.17 2302.56,1292.79 2298.84,1296.61"/>
    </edge>
    <edge id=":1124430642_11" function="internal">
        <lane id=":1124430642_11_0" index="0" disallow="tram rail_urban rail rail_electric rail_fast ship" speed="3.65" length="2.34" shape="2305.64,1284.22 2304.83,1283.84 2304.00,1282.66"/>
    </edge>
    <edge id=":1124430642_6" function="internal">
        <lane id=":1124430642_6_0" index="0" disallow="tram rail_urban rail rail_electric rail_fast ship" speed="11.63" length="14.05" shape="2296.67,1294.25 2299.92,1290.95 2302.23,1287.92 2303.59,1285.16 2304.00,1282.66"/>
    </edge>
    <edge id=":1124430642_7" function="internal">
        <lane id=":1124430642_7_0" index="0" disallow="tram rail_urban rail rail_electric rail_fast ship" speed="7.38" length="18.29" shape="2296.67,1294.25 2301.31,1290.91 2304.72,1290.56 2306.90,1293.20 2307.85,1298.84"/>
    </edge>
    <edge id=":1124430642_8" function="internal">
        <lane id=":1124430642_8_0" index="0" disallow="tram rail_urban rail rail_electric rail_fast ship" speed="3.65" length="4.67" shape="2296.67,1294.25 2298.10,1294.03 2298.93,1294.35 2299.18,1295.21 2298.84,1296.61"/>
    </edge>
    <edge id=":1124430793_0" function="internal">
        <lane id=":1124430793_0_0" index="0" disallow="tram rail_urban rail rail_electric rail_fast ship" speed="3.65" length="4.67" shape="2505.23,1471.01 2505.44,1472.43 2505.10,1473.26 2504.24,1473.50 2502.85,1473.13"/>
    </edge>
    <edge id=":1127867559_0" function="internal">
        <lane id=":1127867559_0_0" index="0" disallow="tram rail_urban rail rail_electric rail_fast ship" speed="3.65" length="4.67" shape="2115.71,1795.08 2117.03,1795.65 2117.57,1796.37 2117.31,1797.23 2116.27,1798.23"/>
    </edge>
    <edge id=":1127867573_0" function="internal">
        <lane id=":1127867573_0_0" index="0" disallow="tram rail_urban rail rail_electric rail_fast ship" speed="13.89" length="14.37" shape="1906.94,1952.51 1893.79,1958.30"/>
    </edge>
    <edge id=":1127867573_1" function="internal">